/*--------------------------------*- C++ -*----------------------------------*\
| =========                 |                                                 |
| \\      /  F ield         | OpenFOAM: The Open Source CFD Toolbox           |
|  \\    /   O peration     | Version:  v1812                                 |
|   \\  /    A nd           | Web:      www.OpenFOAM.com                      |
|    \\/     M anipulation  |                                                 |
\*---------------------------------------------------------------------------*/
FoamFile
{
    version     2.0;
    format      ascii;
    class       dictionary;
    location    "system";
    object      topoSetDict;
}
// * * * * * * * * * * * * * * * * * * * * * * * * * * * * * * * * * * * * * //


actions
(   
   {
        name    obstacle;
        type    cellSet;
        action  new;
        source  boxToCell;
        sourceInfo
        {
             box  (0 -8 -0.01) (7 1.8 1.01);
            
        }
    }
  {
        name    obstacle;
        type    cellSet;
        action  invert;
        source  boxToCell;

  }





// *************************************************************************

);
// *************************************************************************
