/*--------------------------------*- C++ -*----------------------------------*\
| =========                 |                                                 |
| \\      /  F ield         | OpenFOAM: The Open Source CFD Toolbox           |
|  \\    /   O peration     | Version:  v1812                                 |
|   \\  /    A nd           | Web:      www.OpenFOAM.com                      |
|    \\/     M anipulation  |                                                 |
\*---------------------------------------------------------------------------*/
FoamFile
{
    version     2.0;
    format      ascii;
    class       volScalarField;
    location    "0";
    object      omega;
}
// * * * * * * * * * * * * * * * * * * * * * * * * * * * * * * * * * * * * * //

dimensions      [0 0 -1 0 0 0 0];


internalField   uniform 0.001;

boundaryField
{
    inlet
    {
        type            fixedValue;
        value           uniform 0.001;
    }
    outlet
    {
        type            fixedValue;
        value           uniform 0.001;
    }
    atmosphere
    {
        type            omegaWallFunction;
        value           uniform 0.001;
    }
    bottom
    {
        type            omegaWallFunction;
        value           uniform 0.001;
    }
    frontBack
    {
        type            empty;
    }
    force1
    {
        type            omegaWallFunction;
        value           uniform 0.001;
    }
    force2
    {
        type            omegaWallFunction;
        value           uniform 0.001;
    }
    force3
    {
        type           omegaWallFunction;
        value           uniform 0.001;
    }
    force4
    {
        type           omegaWallFunction;
        value           uniform 0.001;
    }
    force5
    {
        type            omegaWallFunction;
        value           uniform 0.001;
    }
    force6
    {
        type          omegaWallFunction;
        value           uniform 0.001;
    }
    force7
    {
        type           omegaWallFunction;
        value           uniform 0.001;
    }
    force8
    {
        type           omegaWallFunction;
        value           uniform 0.001;
    }
    force9
    {
        type           omegaWallFunction;
        value           uniform 0.001;
    }
    force10
    {
        type            omegaWallFunction;
        value           uniform 0.001;
    }
 force11
    {
        type            omegaWallFunction;
        value           uniform 0.001;
    }
    force12
    {
        type            omegaWallFunction;
        value           uniform 0.001;
    }
    force13
    {
        type           omegaWallFunction;
        value           uniform 0.001;
    }
    force14
    {
        type           omegaWallFunction;
        value           uniform 0.001;
    }
    force15
    {
        type            omegaWallFunction;
        value           uniform 0.001;
    }
    force16
    {
        type          omegaWallFunction;
        value           uniform 0.001;
    }
    force17
    {
        type           omegaWallFunction;
        value           uniform 0.001;
    }
    force18
    {
        type           omegaWallFunction;
        value           uniform 0.001;
    }
    force19
    {
        type           omegaWallFunction;
        value           uniform 0.001;
    }
    force20
    {
        type            omegaWallFunction;
        value           uniform 0.001;
    }
    force21
    {
        type            omegaWallFunction;
        value           uniform 0.001;
    }
    force22
    {
        type            omegaWallFunction;
        value           uniform 0.001;
    }
    force23
    {
        type           omegaWallFunction;
        value           uniform 0.001;
    }
    force24
    {
        type           omegaWallFunction;
        value           uniform 0.001;
    }
    force25
    {
        type            omegaWallFunction;
        value           uniform 0.001;
    }
    force26
    {
        type          omegaWallFunction;
        value           uniform 0.001;
    }
    force27
    {
        type           omegaWallFunction;
        value           uniform 0.001;
    }
    force28
    {
        type           omegaWallFunction;
        value           uniform 0.001;
    }
    force29
    {
        type           omegaWallFunction;
        value           uniform 0.001;
    }
    force30
    {
        type            omegaWallFunction;
        value           uniform 0.001;
    }
}


// ************************************************************************* //
