/*--------------------------------*- C++ -*----------------------------------*\
| =========                 |                                                 |
| \\      /  F ield         | OpenFOAM: The Open Source CFD Toolbox           |
|  \\    /   O peration     | Version:  v1812                                 |
|   \\  /    A nd           | Web:      www.OpenFOAM.com                      |
|    \\/     M anipulation  |                                                 |
\*---------------------------------------------------------------------------*/
FoamFile
{
    version	2.0;
    format	ascii;
    class	dictionary;
    object	waveProperties;
}
// * * * * * * * * * * * * * * * * * * * * * * * * * * * * * * * * * * * * * //

seaLevel            0;

wind                ( 30 0 0 );

relaxationNames     ( inlet outlet );

initializationName  inlet;

inletCoeffs
{
    waveType            stokesFirst;
    Tsoft               2;
    depth               8;
    period              6.5;
    direction           ( 1 0 0 );
    phi                 0;
    height              3.8;
    waveNumber          (0.125043 0 0);
    omega               0.966644;

    relaxationZone
    {
        relaxationScheme    Spatial;
        relaxationShape     Rectangular;
        beachType           Empty;
        relaxType           INLET;
        startX              ( -160 -8 -1 );
        endX                ( -100 27 1 );
        orientation         ( 1 0 0 );
    }
}

outletCoeffs
{
    waveType            potentialCurrent;
    U                   ( 0 0 0 );
    Tsoft               2;

    relaxationZone
    {
        relaxationScheme    Spatial;
        relaxationShape     Rectangular;
        beachType           Empty;
        relaxType           OUTLET;
        startX              ( 10 -8 -1 );
        endX                ( 30 27 1 );
        orientation         ( 1 0 0 );
    }
}

porosityModel       jensenJacobsenChristensen2014;



// ************************************************************************* //
