/*--------------------------------*- C++ -*----------------------------------*\
| =========                 |                                                 |
| \\      /  F ield         | OpenFOAM: The Open Source CFD Toolbox           |
|  \\    /   O peration     | Version:  v1812                                 |
|   \\  /    A nd           | Web:      www.OpenFOAM.com                      |
|    \\/     M anipulation  |                                                 |
\*---------------------------------------------------------------------------*/
FoamFile
{
    version     2.0;
    format      ascii;
    class       volScalarField;
    location    "0";
    object      k;
}
// * * * * * * * * * * * * * * * * * * * * * * * * * * * * * * * * * * * * * //

dimensions      [0 2 -2 0 0 0 0];


internalField   uniform 5e-10;

boundaryField
{
    inlet
    {
        type            fixedValue;
        value           uniform 5e-10;
    }
    outlet
    {
        type            fixedValue;
        value           uniform 5e-10;
    }
    bottom
    {
        type            kqRWallFunction;
        value           uniform 5e-10;
    }
    atmosphere
    {
        type            kqRWallFunction;
        value           uniform 5e-10;
    }
    defaultFaces
    {
        type            empty;
    }
}


// ************************************************************************* //
